Version 4
SHEET 1 1364 680
WIRE -416 -96 -464 -96
WIRE -224 -96 -352 -96
WIRE 64 -96 16 -96
WIRE 256 -96 128 -96
WIRE 0 -80 -192 -80
WIRE -192 -16 -192 -80
WIRE -128 -16 -192 -16
WIRE -464 0 -464 -96
WIRE -464 0 -560 0
WIRE -432 0 -464 0
WIRE -304 0 -352 0
WIRE -224 0 -224 -96
WIRE -224 0 -304 0
WIRE -208 0 -224 0
WIRE -176 0 -208 0
WIRE 0 0 0 -80
WIRE 0 0 -64 0
WIRE 16 0 16 -96
WIRE 16 0 0 0
WIRE 48 0 16 0
WIRE 176 0 128 0
WIRE 256 0 256 -96
WIRE 256 0 176 0
WIRE 272 0 256 0
WIRE 448 0 272 0
WIRE -176 16 -176 0
WIRE -128 16 -176 16
WIRE -560 48 -560 0
WIRE -304 48 -304 0
WIRE 176 48 176 0
WIRE -208 64 -208 0
WIRE 272 64 272 0
WIRE -560 144 -560 128
WIRE -304 144 -304 128
WIRE -304 144 -560 144
WIRE -208 144 -304 144
WIRE 176 144 176 128
WIRE 208 144 176 144
WIRE 272 144 208 144
WIRE -560 160 -560 144
WIRE 208 160 208 144
FLAG -560 160 0
FLAG 448 0 Vo
IOPIN 448 0 Out
FLAG 208 160 0
SYMBOL voltage -560 32 R0
WINDOW 123 24 124 Left 2
WINDOW 39 0 0 Left 0
WINDOW 3 24 152 Left 2
SYMATTR Value2 AC 1
SYMATTR Value SINE(0 1)
SYMATTR InstName V1
SYMBOL OpAmps\\opamp -96 -64 R0
SYMATTR InstName U2
SYMBOL res -224 48 R0
SYMATTR InstName R1
SYMATTR Value 1
SYMBOL ind -320 32 R0
SYMATTR InstName L1
SYMATTR Value 1
SYMBOL ind -448 16 R270
WINDOW 0 32 56 VTop 2
WINDOW 3 5 56 VBottom 2
SYMATTR InstName L2
SYMATTR Value 9
SYMBOL cap -352 -112 R90
WINDOW 0 0 32 VBottom 2
WINDOW 3 32 32 VTop 2
SYMATTR InstName C1
SYMATTR Value 1
SYMBOL res 256 48 R0
SYMATTR InstName R2
SYMATTR Value 1
SYMBOL ind 160 32 R0
SYMATTR InstName L3
SYMATTR Value 1
SYMBOL ind 32 16 R270
WINDOW 0 32 56 VTop 2
WINDOW 3 5 56 VBottom 2
SYMATTR InstName L4
SYMATTR Value 9
SYMBOL cap 128 -112 R90
WINDOW 0 0 32 VBottom 2
WINDOW 3 32 32 VTop 2
SYMATTR InstName C2
SYMATTR Value 1
TEXT -816 288 Left 2 !.lib opamp.sub
TEXT -880 312 Left 2 !.ac dec 100 0.01 10
