Version 4
SHEET 1 1488 1044
WIRE 400 64 -32 64
WIRE 880 64 480 64
WIRE 752 128 496 128
WIRE 752 160 752 128
WIRE 736 272 736 224
WIRE 736 272 592 272
WIRE 768 272 768 224
WIRE 880 272 880 64
WIRE 880 272 768 272
WIRE -32 368 -32 64
WIRE -32 368 -144 368
WIRE 32 368 -32 368
WIRE 160 368 96 368
WIRE 160 384 160 368
WIRE 240 384 160 384
WIRE 352 384 320 384
WIRE 384 384 352 384
WIRE 496 384 496 128
WIRE 496 384 464 384
WIRE 592 384 592 272
WIRE 640 384 592 384
WIRE 752 384 720 384
WIRE 800 384 752 384
WIRE 880 384 880 272
WIRE 880 384 864 384
WIRE 496 400 496 384
WIRE 592 400 592 384
WIRE 592 400 576 400
WIRE 160 432 160 384
WIRE -144 448 -144 368
WIRE 352 528 352 384
WIRE 480 528 352 528
WIRE 592 528 592 400
WIRE 592 528 512 528
WIRE -144 560 -144 528
WIRE 160 560 160 512
WIRE 160 560 -144 560
WIRE 224 560 160 560
WIRE 480 576 480 528
WIRE 512 576 512 528
WIRE 224 608 224 560
WIRE 496 672 496 640
WIRE 752 672 752 384
WIRE 752 672 496 672
FLAG 224 608 0
FLAG 752 672 Vo
IOPIN 752 672 Out
SYMBOL voltage -144 432 R0
WINDOW 123 24 124 Left 2
WINDOW 39 0 0 Left 0
SYMATTR Value2 AC 1 0
SYMATTR InstName V1
SYMATTR Value ""
SYMBOL res 368 368 M90
WINDOW 0 0 56 VBottom 2
WINDOW 3 32 56 VTop 2
SYMATTR InstName R5
SYMATTR Value 1
SYMBOL Opamps/opamp 560 608 R90
SYMATTR InstName U2
SYMBOL Opamps/opamp 688 192 R270
SYMATTR InstName U3
SYMBOL res 480 384 M90
WINDOW 0 0 56 VBottom 2
WINDOW 3 32 56 VTop 2
SYMATTR InstName R4
SYMATTR Value 1
SYMBOL res 624 400 R270
WINDOW 0 32 56 VTop 2
WINDOW 3 0 56 VBottom 2
SYMATTR InstName R1
SYMATTR Value 1
SYMBOL cap 864 368 R90
WINDOW 0 0 32 VBottom 2
WINDOW 3 32 32 VTop 2
SYMATTR InstName C1
SYMATTR Value 1
SYMBOL res 336 368 R90
WINDOW 0 0 56 VBottom 2
WINDOW 3 32 56 VTop 2
SYMATTR InstName R2
SYMATTR Value 1
SYMBOL res 176 528 R180
WINDOW 0 36 76 Left 2
WINDOW 3 36 40 Left 2
SYMATTR InstName R3
SYMATTR Value 1
SYMBOL cap 96 352 R90
WINDOW 0 0 32 VBottom 2
WINDOW 3 32 32 VTop 2
SYMATTR InstName C2
SYMATTR Value 1
SYMBOL res 496 48 R90
WINDOW 0 0 56 VBottom 2
WINDOW 3 32 56 VTop 2
SYMATTR InstName R6
SYMATTR Value 1
TEXT -104 640 Left 2 !.ac dec 100 0.01 10
TEXT -56 600 Left 2 !.inc opamp.sub
