Version 4
SHEET 1 1460 680
WIRE -192 96 -336 96
WIRE 176 96 -112 96
WIRE -336 160 -336 96
WIRE -336 160 -416 160
WIRE -224 160 -336 160
WIRE 176 160 176 96
WIRE 176 160 96 160
WIRE -416 176 -416 160
WIRE 176 176 176 160
WIRE -416 192 -416 176
WIRE -336 192 -336 160
WIRE 176 272 176 256
WIRE 176 272 96 272
WIRE -416 288 -416 272
WIRE -336 288 -336 272
WIRE -224 288 -336 288
WIRE 176 288 176 272
WIRE -336 304 -336 288
WIRE -224 304 -224 288
WIRE 96 304 96 272
FLAG -416 288 0
FLAG -416 176 IN
FLAG 176 288 0
FLAG -336 304 0
SYMBOL voltage -416 176 R0
WINDOW 3 24 44 Invisible 2
SYMATTR Value SINE(0 1)
SYMATTR SpiceLine Rser=0.00001
SYMATTR Value2 AC 1
SYMATTR InstName V1
SYMBOL res 160 160 R0
SYMATTR InstName R1
SYMATTR Value 3
SYMBOL res -352 176 R0
SYMATTR InstName R2
SYMATTR Value 1
SYMBOL res -96 80 R90
WINDOW 0 0 56 VBottom 2
WINDOW 3 32 56 VTop 2
SYMATTR InstName R3
SYMATTR Value 2
SYMBOL spice-main\\spice-main\\trafo_ideal -80 224 R0
WINDOW 39 8 -78 Bottom 2
SYMATTR InstName X1
SYMATTR SpiceLine a = 1
TEXT -520 368 Left 2 !.ac dec 1000 0.01 10
TEXT -48 24 Left 2 !.net I(R3) V1
